lab2_Step1.b

m1 vout+ 1 0 0 nch l=0.79u w=0.95u
vgs 1 vin dc 0.78v
vin vin gnd ac 1v
vds vds 0 dc 2v
r1 vds vout+ 10k
c1 vout+ 0 10p ic=0
.lib 'mm018.l' TT
.op
.options post probe
.ac dec 100 10 10g
.plot ac vdb(vout+)
.meas ac gb when vdb(vout)=0
.alter
vgs 1 vin dc 1.11v
.alter
vgs 1 vin dc 1.42v
.end